Alanine dipeptide
 OpenBabel04140706513D

 22 21  0  0  0  0  0  0  0  0999 V2000
    3.4220   -1.0580   -0.1950 C   0  0  0  0  0
    2.2960   -0.1220    0.1590 C   0  0  0  0  0
    2.5140    0.8620    0.8330 O   0  0  0  0  0
    1.0450   -0.3770   -0.2750 N   0  0  0  0  0
   -0.0500    0.5330    0.0690 C   0  0  0  0  0
    0.1120    0.9340    1.0700 H   0  0  0  0  0
   -0.0930    1.6830   -0.9400 C   0  0  0  0  0
   -1.3570   -0.2160    0.0330 C   0  0  0  0  0
   -1.3720   -1.3950   -0.2520 O   0  0  0  0  0
   -2.5080    0.4230    0.3170 N   0  0  0  0  0
   -3.7790   -0.3050    0.2820 C   0  0  0  0  0
    3.5090   -1.8280    0.5720 H   0  0  0  0  0
    3.2160   -1.5270   -1.1580 H   0  0  0  0  0
    4.3550   -0.4980   -0.2560 H   0  0  0  0  0
    0.8700   -1.1640   -0.8140 H   0  0  0  0  0
   -0.2540    1.2820   -1.9400 H   0  0  0  0  0
   -0.9070    2.3600   -0.6840 H   0  0  0  0  0
    0.8520    2.2250   -0.9130 H   0  0  0  0  0
   -2.4960    1.3660    0.5450 H   0  0  0  0  0
   -3.9400   -0.7060   -0.7190 H   0  0  0  0  0
   -3.7480   -1.1240    1.0010 H   0  0  0  0  0
   -4.5940    0.3720    0.5380 H   0  0  0  0  0
  1  2  1  0  0  0
  1 12  1  0  0  0
  1 13  1  0  0  0
  1 14  1  0  0  0
  2  3  2  0  0  0
  2  4  1  0  0  0
  4  5  1  0  0  0
  4 15  1  0  0  0
  5  6  1  0  0  0
  5  7  1  0  0  0
  5  8  1  0  0  0
  7 16  1  0  0  0
  7 17  1  0  0  0
  7 18  1  0  0  0
  8  9  2  0  0  0
  8 10  1  0  0  0
 10 11  1  0  0  0
 10 19  1  0  0  0
 11 20  1  0  0  0
 11 21  1  0  0  0
 11 22  1  0  0  0
M  END
