Arginine cation dipeptide
 OpenBabel04140706513D

 36 35  0  0  0  0  0  0  0  0999 V2000
    1.8490    3.4750   -0.0650 C   0  0  0  0  0
    1.7370    1.9760   -0.1740 C   0  0  0  0  0
    1.7910    1.4420   -1.2620 O   0  0  0  0  0
    1.5790    1.2290    0.9360 N   0  0  0  0  0
    1.4700   -0.2280    0.8300 C   0  0  0  0  0
    1.3480   -0.6570    1.8240 H   0  0  0  0  0
    0.2600   -0.5870   -0.0340 C   0  0  0  0  0
   -1.0210   -0.1370    0.6710 C   0  0  0  0  0
   -2.2320   -0.4960   -0.1920 C   0  0  0  0  0
   -3.4590   -0.0650    0.4830 N   0  0  0  0  0
   -4.6180   -0.2720   -0.0770 C   0  0  0  0  0
   -4.6890   -0.8950   -1.3000 N   0  0  0  0  0
   -5.7690    0.1330    0.5570 N   0  0  0  0  0
    2.7210   -0.7790    0.1960 C   0  0  0  0  0
    3.4420   -0.0530   -0.4550 O   0  0  0  0  0
    3.0390   -2.0800    0.3520 N   0  0  0  0  0
    4.2550   -2.6160   -0.2650 C   0  0  0  0  0
    1.9720    3.9040   -1.0590 H   0  0  0  0  0
    0.9440    3.8740    0.3940 H   0  0  0  0  0
    2.7110    3.7310    0.5510 H   0  0  0  0  0
    1.5360    1.6560    1.8060 H   0  0  0  0  0
    0.3390   -0.0860   -0.9980 H   0  0  0  0  0
    0.2300   -1.6660   -0.1870 H   0  0  0  0  0
   -1.1010   -0.6380    1.6360 H   0  0  0  0  0
   -0.9920    0.9420    0.8240 H   0  0  0  0  0
   -2.1520    0.0050   -1.1570 H   0  0  0  0  0
   -2.2620   -1.5750   -0.3450 H   0  0  0  0  0
   -3.4080    0.3750    1.3460 H   0  0  0  0  0
   -3.8770   -1.1810   -1.7470 H   0  0  0  0  0
   -5.5520   -1.0490   -1.7160 H   0  0  0  0  0
   -6.6310   -0.0210    0.1400 H   0  0  0  0  0
   -5.7180    0.5730    1.4200 H   0  0  0  0  0
    2.4620   -2.6610    0.8720 H   0  0  0  0  0
    4.3430   -3.6770   -0.0310 H   0  0  0  0  0
    4.2020   -2.4860   -1.3460 H   0  0  0  0  0
    5.1240   -2.0850    0.1230 H   0  0  0  0  0
  1  2  1  0  0  0
  1 18  1  0  0  0
  1 19  1  0  0  0
  1 20  1  0  0  0
  2  3  2  0  0  0
  2  4  1  0  0  0
  4  5  1  0  0  0
  4 21  1  0  0  0
  5  6  1  0  0  0
  5  7  1  0  0  0
  5 14  1  0  0  0
  7  8  1  0  0  0
  7 22  1  0  0  0
  7 23  1  0  0  0
  8  9  1  0  0  0
  8 24  1  0  0  0
  8 25  1  0  0  0
  9 10  1  0  0  0
  9 26  1  0  0  0
  9 27  1  0  0  0
 10 11  1  0  0  0
 10 28  1  0  0  0
 11 12  2  0  0  0
 11 13  1  0  0  0
 12 29  1  0  0  0
 12 30  1  0  0  0
 13 31  1  0  0  0
 13 32  1  0  0  0
 14 15  2  0  0  0
 14 16  1  0  0  0
 16 17  1  0  0  0
 16 33  1  0  0  0
 17 34  1  0  0  0
 17 35  1  0  0  0
 17 36  1  0  0  0
M  CHG  1  12   1
M  END
