Aspartate dipeptide
 OpenBabel04140706513D

 24 23  0  0  0  0  0  0  0  0999 V2000
    1.0490   -3.3240   -0.6590 C   0  0  0  0  0
    0.5280   -2.1200    0.0830 C   0  0  0  0  0
    0.1380   -2.2340    1.2260 O   0  0  0  0  0
    0.4950   -0.9170   -0.5240 N   0  0  0  0  0
   -0.1030    0.2320    0.1600 C   0  0  0  0  0
    0.0740    0.1490    1.2320 H   0  0  0  0  0
    0.5310    1.5230   -0.3620 C   0  0  0  0  0
    1.9890    1.5550    0.0150 C   0  0  0  0  0
    2.4750    0.6430    0.7640 O   0  0  0  0  0
    2.7380    2.4940   -0.4130 O   0  0  0  0  0
   -1.5860    0.2580   -0.1040 C   0  0  0  0  0
   -2.0940   -0.5990   -0.7960 O   0  0  0  0  0
   -2.3490    1.2340    0.4280 N   0  0  0  0  0
   -3.7910    1.2590    0.1710 C   0  0  0  0  0
    0.9990   -4.2000   -0.0120 H   0  0  0  0  0
    0.4420   -3.4940   -1.5480 H   0  0  0  0  0
    2.0840   -3.1500   -0.9540 H   0  0  0  0  0
    0.8670   -0.8120   -1.4140 H   0  0  0  0  0
    0.4360    1.5610   -1.4480 H   0  0  0  0  0
    0.0230    2.3810    0.0770 H   0  0  0  0  0
   -1.9420    1.9190    0.9810 H   0  0  0  0  0
   -3.9670    1.3420   -0.9010 H   0  0  0  0  0
   -4.2420    0.3390    0.5440 H   0  0  0  0  0
   -4.2360    2.1140    0.6800 H   0  0  0  0  0
  1  2  1  0  0  0
  1 15  1  0  0  0
  1 16  1  0  0  0
  1 17  1  0  0  0
  2  3  2  0  0  0
  2  4  1  0  0  0
  4  5  1  0  0  0
  4 18  1  0  0  0
  5  6  1  0  0  0
  5  7  1  0  0  0
  5 11  1  0  0  0
  7  8  1  0  0  0
  7 19  1  0  0  0
  7 20  1  0  0  0
  8  9  2  0  0  0
  8 10  1  0  0  0
 11 12  2  0  0  0
 11 13  1  0  0  0
 13 14  1  0  0  0
 13 21  1  0  0  0
 14 22  1  0  0  0
 14 23  1  0  0  0
 14 24  1  0  0  0
M  CHG  1  10  -1
M  END
