Asparagine dipeptide
 OpenBabel04140706513D

 26 25  0  0  0  0  0  0  0  0999 V2000
   -0.8450    3.3900   -0.6640 C   0  0  0  0  0
   -0.3930    2.1610    0.0810 C   0  0  0  0  0
    0.0100    2.2570    1.2210 O   0  0  0  0  0
   -0.4370    0.9550   -0.5190 N   0  0  0  0  0
    0.0950   -0.2250    0.1680 C   0  0  0  0  0
   -0.0690   -0.1250    1.2410 H   0  0  0  0  0
   -0.6180   -1.4780   -0.3440 C   0  0  0  0  0
   -2.0730   -1.4200    0.0430 C   0  0  0  0  0
   -2.4780   -0.5230    0.7510 O   0  0  0  0  0
   -2.9260   -2.3670   -0.3990 N   0  0  0  0  0
    1.5730   -0.3410   -0.1050 C   0  0  0  0  0
    2.1270    0.4810   -0.8040 O   0  0  0  0  0
    2.2790   -1.3580    0.4280 N   0  0  0  0  0
    3.7150   -1.4710    0.1630 C   0  0  0  0  0
    0.0020    3.8260   -1.1940 H   0  0  0  0  0
   -1.6200    3.1170   -1.3800 H   0  0  0  0  0
   -1.2450    4.1170    0.0430 H   0  0  0  0  0
   -0.8200    0.8680   -1.4060 H   0  0  0  0  0
   -0.5320   -1.5270   -1.4300 H   0  0  0  0  0
   -0.1590   -2.3630    0.0970 H   0  0  0  0  0
   -2.6020   -3.0840   -0.9660 H   0  0  0  0  0
   -3.8620   -2.3300   -0.1500 H   0  0  0  0  0
    1.8360   -2.0150    0.9870 H   0  0  0  0  0
    3.8800   -1.5700   -0.9100 H   0  0  0  0  0
    4.2230   -0.5780    0.5270 H   0  0  0  0  0
    4.1110   -2.3490    0.6740 H   0  0  0  0  0
  1  2  1  0  0  0
  1 15  1  0  0  0
  1 16  1  0  0  0
  1 17  1  0  0  0
  2  3  2  0  0  0
  2  4  1  0  0  0
  4  5  1  0  0  0
  4 18  1  0  0  0
  5  6  1  0  0  0
  5  7  1  0  0  0
  5 11  1  0  0  0
  7  8  1  0  0  0
  7 19  1  0  0  0
  7 20  1  0  0  0
  8  9  2  0  0  0
  8 10  1  0  0  0
 10 21  1  0  0  0
 10 22  1  0  0  0
 11 12  2  0  0  0
 11 13  1  0  0  0
 13 14  1  0  0  0
 13 23  1  0  0  0
 14 24  1  0  0  0
 14 25  1  0  0  0
 14 26  1  0  0  0
M  END
