Glutamate dipeptide
 OpenBabel04140706513D

 27 26  0  0  0  0  0  0  0  0999 V2000
    0.7080    3.5290   -0.0150 C   0  0  0  0  0
    0.6720    2.0270   -0.1280 C   0  0  0  0  0
    0.7370    1.4980   -1.2170 O   0  0  0  0  0
    0.5670    1.2710    0.9830 N   0  0  0  0  0
    0.5310   -0.1900    0.8740 C   0  0  0  0  0
    0.4440   -0.6270    1.8690 H   0  0  0  0  0
   -0.6720   -0.6090    0.0260 C   0  0  0  0  0
   -1.9640   -0.2260    0.7500 C   0  0  0  0  0
   -3.1490   -0.6380   -0.0850 C   0  0  0  0  0
   -2.9670   -1.2140   -1.2090 O   0  0  0  0  0
   -4.3320   -0.4130    0.3320 O   0  0  0  0  0
    1.8000   -0.6760    0.2210 C   0  0  0  0  0
    2.4740    0.0870   -0.4370 O   0  0  0  0  0
    2.1850   -1.9590    0.3700 N   0  0  0  0  0
    3.4180   -2.4310   -0.2650 C   0  0  0  0  0
    0.7950    3.9660   -1.0100 H   0  0  0  0  0
   -0.2090    3.8810    0.4570 H   0  0  0  0  0
    1.5650    3.8280    0.5890 H   0  0  0  0  0
    0.5140    1.6930    1.8550 H   0  0  0  0  0
   -0.6310   -0.1020   -0.9380 H   0  0  0  0  0
   -0.6480   -1.6880   -0.1290 H   0  0  0  0  0
   -2.0050   -0.7330    1.7140 H   0  0  0  0  0
   -1.9870    0.8530    0.9050 H   0  0  0  0  0
    1.6460   -2.5700    0.8960 H   0  0  0  0  0
    3.3440   -2.3020   -1.3450 H   0  0  0  0  0
    4.2640   -1.8570    0.1130 H   0  0  0  0  0
    3.5640   -3.4870   -0.0350 H   0  0  0  0  0
  1  2  1  0  0  0
  1 16  1  0  0  0
  1 17  1  0  0  0
  1 18  1  0  0  0
  2  3  2  0  0  0
  2  4  1  0  0  0
  4  5  1  0  0  0
  4 19  1  0  0  0
  5  6  1  0  0  0
  5  7  1  0  0  0
  5 12  1  0  0  0
  7  8  1  0  0  0
  7 20  1  0  0  0
  7 21  1  0  0  0
  8  9  1  0  0  0
  8 22  1  0  0  0
  8 23  1  0  0  0
  9 10  2  0  0  0
  9 11  1  0  0  0
 12 13  2  0  0  0
 12 14  1  0  0  0
 14 15  1  0  0  0
 14 24  1  0  0  0
 15 25  1  0  0  0
 15 26  1  0  0  0
 15 27  1  0  0  0
M  CHG  1  11  -1
M  END
