Glycine dipeptide
 OpenBabel04140706513D

 19 18  0  0  0  0  0  0  0  0999 V2000
    3.4200   -0.9500    0.0000 C   0  0  0  0  0
    2.3110    0.0700   -0.0000 C   0  0  0  0  0
    2.5760    1.2540   -0.0000 O   0  0  0  0  0
    1.0250   -0.3330    0.0000 N   0  0  0  0  0
   -0.0530    0.6590   -0.0000 C   0  0  0  0  0
   -1.3850   -0.0460    0.0000 C   0  0  0  0  0
   -1.4290   -1.2580    0.0000 O   0  0  0  0  0
   -2.5270    0.6690   -0.0000 N   0  0  0  0  0
   -3.8210   -0.0160    0.0000 C   0  0  0  0  0
    3.6880   -1.1960    1.0280 H   0  0  0  0  0
    3.0850   -1.8510   -0.5140 H   0  0  0  0  0
    4.2900   -0.5410   -0.5140 H   0  0  0  0  0
    0.8130   -1.2790    0.0000 H   0  0  0  0  0
    0.0280    1.2830    0.8900 H   0  0  0  0  0
    0.0280    1.2830   -0.8900 H   0  0  0  0  0
   -2.4910    1.6390   -0.0000 H   0  0  0  0  0
   -3.9020   -0.6410    0.8900 H   0  0  0  0  0
   -4.6230    0.7220   -0.0000 H   0  0  0  0  0
   -3.9020   -0.6410   -0.8900 H   0  0  0  0  0
  1  2  1  0  0  0
  1 10  1  0  0  0
  1 11  1  0  0  0
  1 12  1  0  0  0
  2  3  2  0  0  0
  2  4  1  0  0  0
  4  5  1  0  0  0
  4 13  1  0  0  0
  5  6  1  0  0  0
  5 14  1  0  0  0
  5 15  1  0  0  0
  6  7  2  0  0  0
  6  8  1  0  0  0
  8  9  1  0  0  0
  8 16  1  0  0  0
  9 17  1  0  0  0
  9 18  1  0  0  0
  9 19  1  0  0  0
M  END
