Histidine cation dipeptide
 OpenBabel04140706513D

 30 30  0  0  0  0  0  0  0  0999 V2000
   -0.3300    3.5790    0.3320 C   0  0  0  0  0
   -0.5880    2.2150   -0.2550 C   0  0  0  0  0
   -1.0400    2.1130   -1.3760 O   0  0  0  0  0
   -0.3180    1.1090    0.4660 N   0  0  0  0  0
   -0.5690   -0.2170   -0.1050 C   0  0  0  0  0
   -0.3620   -0.1960   -1.1750 H   0  0  0  0  0
    0.3420   -1.2440    0.5710 C   0  0  0  0  0
    1.7800   -0.9330    0.2420 C   0  0  0  0  0
    2.6510   -0.2010    1.0020 N   0  0  0  0  0
    2.4580    0.2180    1.8550 H   0  0  0  0  0
    3.8280   -0.1690    0.3410 C   0  0  0  0  0
    3.7030   -0.8440   -0.7690 N   0  0  0  0  0
    4.4030   -0.9760   -1.4270 H   0  0  0  0  0
    2.4560   -1.3290   -0.8540 C   0  0  0  0  0
   -2.0090   -0.5970    0.1210 C   0  0  0  0  0
   -2.7530    0.1650    0.7030 O   0  0  0  0  0
   -2.4710   -1.7830   -0.3220 N   0  0  0  0  0
   -3.8710   -2.1520   -0.1010 C   0  0  0  0  0
   -0.6080    4.3450   -0.3920 H   0  0  0  0  0
   -0.9240    3.7030    1.2380 H   0  0  0  0  0
    0.7280    3.6760    0.5750 H   0  0  0  0  0
    0.0430    1.1910    1.3620 H   0  0  0  0  0
    0.1990   -1.2010    1.6500 H   0  0  0  0  0
    0.0940   -2.2420    0.2100 H   0  0  0  0  0
    4.7250    0.3310    0.6760 H   0  0  0  0  0
    2.0610   -1.9270   -1.6620 H   0  0  0  0  0
   -1.8760   -2.3920   -0.7860 H   0  0  0  0  0
   -4.0580   -3.1390   -0.5260 H   0  0  0  0  0
   -4.0780   -2.1720    0.9690 H   0  0  0  0  0
   -4.5200   -1.4210   -0.5830 H   0  0  0  0  0
  1  2  1  0  0  0
  1 19  1  0  0  0
  1 20  1  0  0  0
  1 21  1  0  0  0
  2  3  2  0  0  0
  2  4  1  0  0  0
  4  5  1  0  0  0
  4 22  1  0  0  0
  5  6  1  0  0  0
  5  7  1  0  0  0
  5 15  1  0  0  0
  7  8  1  0  0  0
  7 23  1  0  0  0
  7 24  1  0  0  0
  8 14  2  0  0  0
  8  9  1  0  0  0
  9 10  1  0  0  0
  9 11  1  0  0  0
 11 12  2  0  0  0
 11 25  1  0  0  0
 12 13  1  0  0  0
 12 14  1  0  0  0
 14 26  1  0  0  0
 15 16  2  0  0  0
 15 17  1  0  0  0
 17 18  1  0  0  0
 17 27  1  0  0  0
 18 28  1  0  0  0
 18 29  1  0  0  0
 18 30  1  0  0  0
M  CHG  1  12   1
M  END
