Histidine (delta-protonated) dipeptide
 OpenBabel04140706513D

 29 29  0  0  0  0  0  0  0  0999 V2000
    0.2140    3.4070    0.4650 C   0  0  0  0  0
    0.4970    1.9840    0.0580 C   0  0  0  0  0
    0.9410    1.7470   -1.0450 O   0  0  0  0  0
    0.2560    0.9760    0.9190 N   0  0  0  0  0
    0.5310   -0.4070    0.5230 C   0  0  0  0  0
    0.2750   -1.0780    1.3430 H   0  0  0  0  0
   -0.3080   -0.7620   -0.7070 C   0  0  0  0  0
   -1.7700   -0.7350   -0.3410 C   0  0  0  0  0
   -2.6330    0.3140   -0.5060 N   0  0  0  0  0
   -2.4180    1.1830   -0.8800 H   0  0  0  0  0
   -3.8400   -0.0850   -0.0500 C   0  0  0  0  0
   -3.7400   -1.3150    0.3760 N   0  0  0  0  0
   -2.4800   -1.7410    0.2040 C   0  0  0  0  0
    1.9940   -0.5530    0.1910 C   0  0  0  0  0
    2.6550    0.4270   -0.0780 O   0  0  0  0  0
    2.5670   -1.7730    0.1940 N   0  0  0  0  0
    3.9890   -1.9150   -0.1280 C   0  0  0  0  0
    0.4690    4.0780   -0.3550 H   0  0  0  0  0
   -0.8440    3.5130    0.7050 H   0  0  0  0  0
    0.8120    3.6600    1.3410 H   0  0  0  0  0
   -0.1000    1.1660    1.8010 H   0  0  0  0  0
   -0.1180   -0.0370   -1.4980 H   0  0  0  0  0
   -0.0390   -1.7590   -1.0550 H   0  0  0  0  0
   -4.7390    0.5140   -0.0390 H   0  0  0  0  0
   -2.1000   -2.7180    0.4650 H   0  0  0  0  0
    2.0370   -2.5570    0.4090 H   0  0  0  0  0
    4.5820   -1.3440    0.5860 H   0  0  0  0  0
    4.2700   -2.9670   -0.0750 H   0  0  0  0  0
    4.1720   -1.5400   -1.1350 H   0  0  0  0  0
  1  2  1  0  0  0
  1 18  1  0  0  0
  1 19  1  0  0  0
  1 20  1  0  0  0
  2  3  2  0  0  0
  2  4  1  0  0  0
  4  5  1  0  0  0
  4 21  1  0  0  0
  5  6  1  0  0  0
  5  7  1  0  0  0
  5 14  1  0  0  0
  7  8  1  0  0  0
  7 22  1  0  0  0
  7 23  1  0  0  0
  8 13  2  0  0  0
  8  9  1  0  0  0
  9 10  1  0  0  0
  9 11  1  0  0  0
 11 12  2  0  0  0
 11 24  1  0  0  0
 12 13  1  0  0  0
 13 25  1  0  0  0
 14 15  2  0  0  0
 14 16  1  0  0  0
 16 17  1  0  0  0
 16 26  1  0  0  0
 17 27  1  0  0  0
 17 28  1  0  0  0
 17 29  1  0  0  0
M  END
