Isoleucine dipeptide
 OpenBabel04140706513D

 31 30  0  0  0  0  0  0  0  0999 V2000
    3.4500    0.9850    1.0520 C   0  0  0  0  0
    2.3530    0.7230    0.0520 C   0  0  0  0  0
    2.5720    0.8500   -1.1340 O   0  0  0  0  0
    1.1300    0.3480    0.4750 N   0  0  0  0  0
    0.0770    0.0510   -0.4990 C   0  0  0  0  0
    0.3710    0.4270   -1.4780 H   0  0  0  0  0
   -0.1360   -1.4620   -0.5760 C   0  0  0  0  0
   -0.9930   -1.6760   -1.2150 H   0  0  0  0  0
    1.1140   -2.1230   -1.1590 C   0  0  0  0  0
   -0.3960   -2.0120    0.8280 C   0  0  0  0  0
   -1.7740   -1.5530    1.3090 C   0  0  0  0  0
   -1.2050    0.7180   -0.0700 C   0  0  0  0  0
   -1.2500    1.3320    0.9750 O   0  0  0  0  0
   -2.3030    0.6310   -0.8480 N   0  0  0  0  0
   -3.5120    1.3790   -0.4950 C   0  0  0  0  0
    3.4300    2.0340    1.3460 H   0  0  0  0  0
    3.2970    0.3580    1.9310 H   0  0  0  0  0
    4.4150    0.7520    0.6030 H   0  0  0  0  0
    0.9470    0.2740    1.4250 H   0  0  0  0  0
    1.9490   -1.9920   -0.4710 H   0  0  0  0  0
    0.9270   -3.1870   -1.3060 H   0  0  0  0  0
    1.3560   -1.6620   -2.1160 H   0  0  0  0  0
   -0.3650   -3.1020    0.8030 H   0  0  0  0  0
    0.3690   -1.6420    1.5110 H   0  0  0  0  0
   -1.7070   -0.5320    1.6830 H   0  0  0  0  0
   -2.4790   -1.5900    0.4780 H   0  0  0  0  0
   -2.1180   -2.2110    2.1070 H   0  0  0  0  0
   -2.2920    0.0730   -1.6420 H   0  0  0  0  0
   -3.8600    1.0630    0.4880 H   0  0  0  0  0
   -3.2870    2.4450   -0.4750 H   0  0  0  0  0
   -4.2880    1.1850   -1.2350 H   0  0  0  0  0
  1  2  1  0  0  0
  1 16  1  0  0  0
  1 17  1  0  0  0
  1 18  1  0  0  0
  2  3  2  0  0  0
  2  4  1  0  0  0
  4  5  1  0  0  0
  4 19  1  0  0  0
  5  6  1  0  0  0
  5  7  1  0  0  0
  5 12  1  0  0  0
  7  8  1  0  0  0
  7  9  1  0  0  0
  7 10  1  0  0  0
  9 20  1  0  0  0
  9 21  1  0  0  0
  9 22  1  0  0  0
 10 11  1  0  0  0
 10 23  1  0  0  0
 10 24  1  0  0  0
 11 25  1  0  0  0
 11 26  1  0  0  0
 11 27  1  0  0  0
 12 13  2  0  0  0
 12 14  1  0  0  0
 14 15  1  0  0  0
 14 28  1  0  0  0
 15 29  1  0  0  0
 15 30  1  0  0  0
 15 31  1  0  0  0
M  END
