Threonine dipeptide
 OpenBabel04140706513D

 26 25  0  0  0  0  0  0  0  0999 V2000
    3.1940    1.5620    0.5880 C   0  0  0  0  0
    2.1440    0.7860   -0.1640 C   0  0  0  0  0
    2.4200    0.2580   -1.2200 O   0  0  0  0  0
    0.8980    0.6780    0.3380 N   0  0  0  0  0
   -0.1230   -0.0770   -0.3930 C   0  0  0  0  0
    0.0260    0.0540   -1.4650 H   0  0  0  0  0
   -0.0110   -1.5620   -0.0410 C   0  0  0  0  0
   -0.7790   -2.1210   -0.5740 H   0  0  0  0  0
   -0.1890   -1.7310    1.3670 O   0  0  0  0  0
    1.3710   -2.0790   -0.4460 C   0  0  0  0  0
   -1.4910    0.4280   -0.0110 C   0  0  0  0  0
   -1.6470    1.0240    1.0330 O   0  0  0  0  0
   -2.5400    0.2170   -0.8300 N   0  0  0  0  0
   -3.8830    0.6400   -0.4250 C   0  0  0  0  0
    3.1720    2.6040    0.2710 H   0  0  0  0  0
    2.9920    1.5040    1.6580 H   0  0  0  0  0
    4.1770    1.1390    0.3800 H   0  0  0  0  0
    0.6770    1.0990    1.1830 H   0  0  0  0  0
   -1.0690   -1.3940    1.5800 H   0  0  0  0  0
    2.1340   -1.5960    0.1660 H   0  0  0  0  0
    1.4140   -3.1570   -0.2960 H   0  0  0  0  0
    1.5510   -1.8510   -1.4970 H   0  0  0  0  0
   -2.4060   -0.2150   -1.6890 H   0  0  0  0  0
   -4.1620    0.1290    0.4970 H   0  0  0  0  0
   -3.8900    1.7170   -0.2600 H   0  0  0  0  0
   -4.5960    0.3880   -1.2100 H   0  0  0  0  0
  1  2  1  0  0  0
  1 15  1  0  0  0
  1 16  1  0  0  0
  1 17  1  0  0  0
  2  3  2  0  0  0
  2  4  1  0  0  0
  4  5  1  0  0  0
  4 18  1  0  0  0
  5  6  1  0  0  0
  5  7  1  0  0  0
  5 11  1  0  0  0
  7  8  1  0  0  0
  7  9  1  0  0  0
  7 10  1  0  0  0
  9 19  1  0  0  0
 10 20  1  0  0  0
 10 21  1  0  0  0
 10 22  1  0  0  0
 11 12  2  0  0  0
 11 13  1  0  0  0
 13 14  1  0  0  0
 13 23  1  0  0  0
 14 24  1  0  0  0
 14 25  1  0  0  0
 14 26  1  0  0  0
M  END
