Tryptophan dipeptide
 OpenBabel04140706513D

 36 37  0  0  0  0  0  0  0  0999 V2000
   -0.2670    3.1590   -0.6130 C   0  0  0  0  0
   -0.8630    1.8540   -0.1530 C   0  0  0  0  0
   -1.3370    1.7620    0.9590 O   0  0  0  0  0
   -0.8700    0.7880   -0.9790 N   0  0  0  0  0
   -1.4500   -0.4810   -0.5320 C   0  0  0  0  0
   -1.3650   -1.2200   -1.3280 H   0  0  0  0  0
   -0.6990   -0.9760    0.7060 C   0  0  0  0  0
    0.7260   -1.2980    0.3340 C   0  0  0  0  0
    1.8450   -0.3540    0.2730 C   0  0  0  0  0
    2.9670   -1.1070   -0.1170 C   0  0  0  0  0
    2.5480   -2.4080   -0.2760 N   0  0  0  0  0
    3.1160   -3.1480   -0.5420 H   0  0  0  0  0
    1.2120   -2.5040    0.0010 C   0  0  0  0  0
    4.1970   -0.4720   -0.2610 C   0  0  0  0  0
    4.3000    0.8810   -0.0230 C   0  0  0  0  0
    3.1890    1.6200    0.3610 C   0  0  0  0  0
    1.9720    1.0160    0.5080 C   0  0  0  0  0
   -2.9030   -0.2760   -0.1890 C   0  0  0  0  0
   -3.3190    0.8380    0.0480 O   0  0  0  0  0
   -3.7400   -1.3320   -0.1450 N   0  0  0  0  0
   -5.1520   -1.1330    0.1880 C   0  0  0  0  0
    0.7920    3.1850   -0.3580 H   0  0  0  0  0
   -0.3830    3.2510   -1.6930 H   0  0  0  0  0
   -0.7790    3.9860   -0.1210 H   0  0  0  0  0
   -0.4910    0.8620   -1.8690 H   0  0  0  0  0
   -0.7080   -0.2000    1.4720 H   0  0  0  0  0
   -1.1850   -1.8730    1.0910 H   0  0  0  0  0
    0.6320   -3.4140   -0.0460 H   0  0  0  0  0
    5.0670   -1.0380   -0.5590 H   0  0  0  0  0
    5.2560    1.3720   -0.1360 H   0  0  0  0  0
    3.2880    2.6790    0.5440 H   0  0  0  0  0
    1.1120    1.5970    0.8070 H   0  0  0  0  0
   -3.4070   -2.2230   -0.3340 H   0  0  0  0  0
   -5.6680   -2.0930    0.1740 H   0  0  0  0  0
   -5.2330   -0.6920    1.1810 H   0  0  0  0  0
   -5.6080   -0.4660   -0.5440 H   0  0  0  0  0
  1  2  1  0  0  0
  1 22  1  0  0  0
  1 23  1  0  0  0
  1 24  1  0  0  0
  2  3  2  0  0  0
  2  4  1  0  0  0
  4  5  1  0  0  0
  4 25  1  0  0  0
  5  6  1  0  0  0
  5  7  1  0  0  0
  5 18  1  0  0  0
  7  8  1  0  0  0
  7 26  1  0  0  0
  7 27  1  0  0  0
  8 13  2  0  0  0
  8  9  1  0  0  0
  9 17  1  0  0  0
  9 10  2  0  0  0
 10 11  1  0  0  0
 10 14  1  0  0  0
 11 12  1  0  0  0
 11 13  1  0  0  0
 13 28  1  0  0  0
 14 15  2  0  0  0
 14 29  1  0  0  0
 15 16  1  0  0  0
 15 30  1  0  0  0
 16 17  2  0  0  0
 16 31  1  0  0  0
 17 32  1  0  0  0
 18 19  2  0  0  0
 18 20  1  0  0  0
 20 21  1  0  0  0
 20 33  1  0  0  0
 21 34  1  0  0  0
 21 35  1  0  0  0
 21 36  1  0  0  0
M  END
